%chk=D:\Users\Ryan\Documents\TMA.chk
# opt b3lyp/3-21g geom=connectivity

Title Card Required

0 1
 N                 -0.00015000    0.00003300   -0.36898900
 C                  0.21831600    1.39385500    0.06235300
 H                  1.17334400    1.74873100   -0.33887000
 H                 -0.58281900    2.02376100   -0.33822300
 H                  0.23754300    1.51249600    1.16390700
 C                 -1.31634700   -0.50789800    0.06240400
 H                 -2.10124500    0.14235900   -0.33776300
 H                 -1.46171700   -1.51613100   -0.33931900
 H                 -1.42819700   -0.55208700    1.16393100
 C                  1.09807400   -0.88595700    0.06228900
 H                  0.92746200   -1.89099400   -0.33744800
 H                  2.04401200   -0.50798200   -0.33942200
 H                  1.19241400   -0.96038400    1.16384900

 1 2 1.0 6 1.0 10 1.0
 2 3 1.0 4 1.0 5 1.0
 3
 4
 5
 6 7 1.0 8 1.0 9 1.0
 7
 8
 9
 10 11 1.0 12 1.0 13 1.0
 11
 12
 13

